10
0  1
C  1.0243914373  0.1144123786  0.3430069146
N  1.0374293525  0.3069616447  1.7837302785
C  2.386490713  0.4404763832  2.3080817835
H -0.0025430841 -0.0351693246 -0.0012299705
H  1.6384258096 -0.7392011988  0.0044208596
H  1.4121730991  1.0176130775 -0.1406447621
H  0.566810394 -0.4700804272  2.238772382
H  2.3533425847  0.5287474462  3.3973962813
H  2.8341759919  1.3579611192  1.9106939404
H  3.050803702 -0.4011210988  2.0419722927


