9
0  1
C  0.9892482656 -0.3335302727  0.3324303735
S  1.2258037925  0.1804131398  2.0544502656
C  2.8907269666 -0.4907671471  2.3054852017
H -0.0002976535  0.0072024198  0.0204189201
H  1.0319844426 -1.4221944066  0.2378513055
H  1.7395297908  0.1216563184 -0.3201361183
H  3.1884924236 -0.2573627892  3.3299380144
H  3.6070820711 -0.0320509369  1.618191252
H  2.9004299006 -1.5765663255  2.1754707855


