8
0  1
C  0.1229645795 -0.6986872696  0.8296594533
C  1.3747300085 -0.3769517184  1.6163281857
I  3.1560250407 -0.5024074335  0.3928721407
H -0.7529592143 -0.621737066  1.492413525
H -0.0151697801  0.0008190249 -0.005308181
H  0.1576395594 -1.7178446866  0.4226258721
H  1.5507208399 -1.0786307589  2.4387560993
H  1.3773489664  0.6453399081  2.0095529049


