8
0  1
C  0.2102521705 -0.3709908134 -0.6686461816
C -0.2100412977  0.3710626198  0.6686774335
Cl -1.1976100528  1.7927499664  0.2794235635
Cl -1.1492886671 -0.731670046  1.6937909788
Cl  1.2435435504  0.890324108  1.5449030519
Cl  1.1489576139  0.7318673276 -1.6941130074
Cl -1.2434811448 -0.8906596307 -1.5443786473
Cl  1.1982678276 -1.7923835318 -0.2795571914


