15
0  1
C -0.460400474 -0.071240335  0.9761664753
C  0.5640043597 -0.4054188959  2.0605673101
C  1.6179105176  0.6897025655  2.1652942256
C  1.2155428013 -1.7619120411  1.7915518651
O -0.0768807059 -0.4242865293  3.3387565133
H -1.2347468986 -0.8469344875  0.9213521674
H -0.9453333954  0.8842794745  1.1987288722
H  0.0152648499 -0.0035116661 -0.0082382302
H  2.3235872766  0.455570168  2.9683217176
H  1.1415432439  1.6481199908  2.3935961528
H  2.170995665  0.7849657944  1.2255088068
H  1.9199291196 -2.0061779357  2.5927152573
H  0.4575841702 -2.5541548608  1.744758221
H  1.7546912524 -1.7583478996  0.8380210879
H -0.7633917821 -1.1078533422  3.331899558


