13
0  1
C  1.877819 -1.0327654983 -0.1027447522
C  2.9123963743 -1.6261695593  0.6090440106
C  2.8732318216 -1.648826675  2.0011849338
C  1.8050015326 -1.0818734022  2.6848569125
C  0.766576691 -0.4863548477  1.9729117507
C  0.8032817297 -0.4619977032  0.5796989945
O -0.1801180471  0.104310216 -0.1740717518
Br  4.2769105182 -2.4558521451  2.963788768
H  1.8867002783 -1.0031375189 -1.1873968191
H  3.7504430482 -2.0719796529  0.0833026209
H  1.7799077588 -1.1031907391  3.7694441007
H -0.0702301078 -0.0421386452  2.5071900047
H -0.8717205977  0.467376171  0.3970912265


