8
0  1
C  0.7391575604 -0.021134336  0.2841094516
C -0.6777075107 -0.0540615886 -0.3632459858
F -0.5605700154 -0.8354495037 -1.4535689135
Cl -1.1693115417  1.5586800308 -0.8727060176
Cl -1.8481538523 -0.7831781925  0.7326941292
F  1.093558946 -1.2800803602  0.561952377
F  1.5962584734  0.4519575586 -0.6265803568
Cl  0.8243679405  0.9551663916  1.7429453159


