12
0  1
C  1.890837551 -1.0392556845 -0.1188413355
C  2.9142592403 -1.6273088666  0.612270418
C  2.8859707742 -1.6563731419  2.0000994994
C  1.8070118226 -1.082643883  2.6648896958
C  0.757186109 -0.480875607  1.9591981786
C  0.8183679328 -0.4695564131  0.5597714754
Cl -0.4458583181  0.2578470655 -0.371840512
Cl -0.5750408444  0.2272914053  2.7911062773
Cl  1.7927526863 -1.1304007455  4.3948619539
Cl  4.2576444581 -2.3411995671 -0.2265504114
H  1.919704129 -1.020272278 -1.2023083107
H  3.6886644591 -2.1172522841  2.5643430714


