8
0  1
C -0.5379787614 -0.5074179701 -0.2022583999
C  0.4743769575  0.4254749828  0.4265644812
Cl  1.8775488019  0.7234212091 -0.6404689977
Cl -1.3599163856  0.2306401092 -1.6079316793
H -1.3099808929 -0.7464228788  0.5327926474
H -0.0650952805 -1.4286169322 -0.5454024031
H  0.0275943929  1.3932006818  0.6586578795
H  0.8580511681 -0.0276792018  1.3435464721


