8
0  1
C  0.8079618584 -0.5408128552  0.495492152
C  2.161916046 -0.0490872128 -0.0143005551
H -0.0156500073 -0.0083422106  0.009744337
H  0.6747507994 -1.6091449968  0.2985199511
H  0.7116453096 -0.3876358018  1.5748969479
H  2.9855222176 -0.5815977585  0.4714143186
H  2.2951402408  1.0192301773  0.1827450444
H  2.2582135354 -0.2022093415 -1.0937121959


