13
0  1
C  1.8845397889 -1.0359012133 -0.1233185806
C  2.9124703616 -1.6262383789  0.6134290794
C  2.869697529 -1.6465871555  2.0034701537
C  1.7859090958 -1.0696862048  2.6662896807
C  0.7524184189 -0.4766770827  1.9411132869
C  0.8072153845 -0.46289017  0.5484843206
O  1.7933637353 -1.1168890649  4.0300452383
H  1.9236538526 -1.023181072 -1.2077315312
H  3.7582613187 -2.0766016738  0.1016421334
H  3.6603903427 -2.1013832137  2.5916558266
H -0.0905162928 -0.0282134775  2.4632124725
H -0.0008261122  0.0005041244 -0.0104483436
H  0.9987225771 -0.6898554176  4.3798562635


