11
0  1
C -0.5611070139 -0.2878810719  0.896776471
C  0.3800772292 -0.4576206364  2.0882641098
C  1.1449627357  0.8266958666  2.4030000343
H -1.1059617843 -1.2112492092  0.6762210195
H -1.2980020671  0.4995161893  1.0922187292
H -0.0028877657 -0.0032214658 -0.0024215997
H -0.1952894125 -0.7674705882  2.9691520215
H  1.0908925696 -1.2670775277  1.8820000168
H  1.8173911388  0.6991219495  3.2572690652
H  0.453357983  1.6437648153  2.638236376
H  1.7484663872  1.1407216785  1.5436837565


