11
0  1
C -0.2721419461 -0.5454983299 -1.1510528594
C -0.1810741685 -0.3756110353  0.3530350757
C  0.2432307538  1.0173845205  0.7760776389
I  1.2119298039 -1.848839285  1.1752735461
H -0.586201243 -1.5589945601 -1.4310928872
H -1.0131399986  0.1689591563 -1.5453876896
H  0.6949824946 -0.3345308055 -1.6293450153
H -1.125337249 -0.6574855464  0.8341559753
H  0.2960051323  1.1162973743  1.8677099233
H -0.4937252874  1.7441125887  0.3968816673
H  1.225371708  1.2739059222  0.3539446248


