14
0  1
C  1.8935853106 -1.0417400731 -0.1032648405
C  2.919566452 -1.6307365661  0.6177117818
C  2.8651140921 -1.6451907708  2.014361214
C  1.7836355549 -1.0699406107  2.6859743612
C  0.7563149325 -0.4800787484  1.9609840585
C  0.8047847311 -0.462298844  0.563446171
C -0.2593827141  0.1486647466 -0.1858723146
N -1.1172894088  0.6411525471 -0.7880749758
O  3.8990030515 -2.2362523683  2.6634452894
H  1.9271148641 -1.0256839147 -1.1879838185
H  3.7713351951 -2.0848807721  0.1226550247
H  1.7456428339 -1.0835938482  3.7725750426
H -0.0873233091 -0.0310378214  2.4754239215
H  3.767198414 -2.1940829558  3.6216190848


