10
0  1
C  0.4308505859  0.1761648519  0.9765343599
C  1.2348276852 -1.0173605307  1.4935605629
N  2.392795637 -1.3936333367  0.6845648227
H -0.4190324558  0.3997826825  1.6311162072
H  1.0595000202  1.0723097934  0.9194416024
H  0.0408111024 -0.0245207385 -0.0280475559
H  0.5867595831 -1.8974990621  1.5689193101
H  1.5952476953 -0.8117278617  2.5075332551
H  3.044078736 -0.6150727143  0.6112777873
H  2.1042614108 -1.6280430839 -0.2628003516


