7
0  1
C  0.5856351826 -0.0230647937  0.1662491677
N -0.9413165715  0.0881391229 -0.2457661708
O -1.3739597477 -0.8796663201 -0.8186205376
O -1.5206592813  1.1036970624  0.0389368762
Cl  0.7066496434 -1.4398339132  1.2010787584
Cl  1.4753281245 -0.2375377385 -1.3360649452
Cl  1.06892265  1.4288665802  1.0015868514


