12
0  1
C  1.8896274156 -1.0386298034 -0.1196222465
C  2.9245896139 -1.6326152909  0.6003322011
C  2.8815802624 -1.6534405033  1.9902008782
C  1.8054648993 -1.0815197525  2.6668535613
C  0.7681543764 -0.4861846708  1.9452662887
C  0.814483151 -0.4670905077  0.5522597852
Cl -0.5875882324  0.2358648804  2.7504506275
Cl  1.7843443432 -1.1254362269  4.4004473204
H  1.9151345625 -1.01792773 -1.2044768799
H  3.7674344178 -2.0809996382  0.0840441445
H  3.6783968331 -2.1114780277  2.5672054508
H -0.0002216427 -0.0002427285  0.0082388687


