14
0  1
C  1.8929995644 -1.0402606653 -0.1221221742
C  2.9283249441 -1.6344718334  0.5896197474
C  2.8643418701 -1.6436806889  1.9886069877
C  1.7891575913 -1.071779172  2.6693620132
C  0.7612590295 -0.4809843075  1.9368019838
C  0.8118489579 -0.4645197041  0.541843916
O -0.2646556702  0.062901088  2.6436413666
C  3.9290203751 -2.2555187083  2.7445847293
N  4.7864062579 -2.7480039539  3.3462429328
H  1.9238477721 -1.0227664509 -1.2071023375
H  3.7742365989 -2.0853397795  0.0826970481
H  1.7400830091 -1.0791898585  3.7528968802
H  0.0065006013 -0.0018952482 -0.0243761171
H -0.9213709014  0.4443092826  2.0437030237


