18
0  1
C  0.3248085865  0.2343302531 -1.4216669747
C -1.0123168464 -0.3854284452 -1.0047799111
C -1.4208341159  0.074711739  0.3975245378
C -0.3248317225 -0.2343139766  1.4217852634
C  1.0122984708  0.3854259499  1.0049087021
C  1.4208155784 -0.0746892709 -0.3974225931
H  0.2059985268  1.3252103997 -1.5034597654
H  0.6194551251 -0.1261304318 -2.4144983968
H -1.7930988733 -0.1313598355 -1.7314629587
H -0.9187109868 -1.4817885184 -1.0107228635
H -1.6029944292  1.1597341017  0.3813078717
H -2.3637743005 -0.3999861711  0.6939287236
H -0.6194982215  0.1261625178  2.4145956004
H -0.206045986 -1.3252030199  1.5035928846
H  0.9187350498  1.4817988087  1.0108622826
H  1.7930625561  0.1313437519  1.7315765292
H  2.3637369649  0.3999982158 -0.6938643805
H  1.6029946236 -1.1597160681 -0.3812045518


