12
0  1
C  0.6892571374  1.3380015824 -0.0676414521
C -0.4142922529  0.9649410513  0.6133964239
C -0.9004785095 -0.4243075978  0.5164169722
O -1.8645690809 -0.8806294325  1.0702576244
N -0.1036911424 -1.2200532308 -0.3196586615
C  1.02909402 -0.8718339903 -1.0299378611
O  1.6501517052 -1.6301439171 -1.7263936156
N  1.3843120461  0.4600964298 -0.8568845759
I -1.4843645536  2.2813781394  1.8174064014
H  1.0829419412  2.354427788 -0.0245293607
H -0.3987395951 -2.188276701 -0.4184112416
H  2.2117782844  0.7537998787 -1.3629206535


