9
0  1
C  0.5934883111 -0.7123659246  0.5575444465
C  2.0796132383 -0.4919763197  0.6165848256
C  1.5179670997 -1.6108874961 -0.2156327285
H -0.004710125  0.0011545681  0.0005890361
H  0.1047760479 -1.1212041321  1.4357156269
H  2.4863309492  0.3710339988  0.0997630076
H  2.5956983945 -0.7515002354  1.5350680476
H  1.5446919677 -1.5043784226 -1.2950540764
H  1.6541441166 -2.6267760364  0.1402218145


