11
0  1
C  1.3978337789 -0.0582001191  1.6459741478
C  0.2313049614 -0.4187414769  0.9770561776
C -0.6307153717 -1.327155502  1.5897750502
N -0.401721997 -1.8738785691  2.7859216421
C  0.7204258634 -1.5195057801  3.4163272594
C  1.6495609691 -0.620650675  2.8944017557
H  2.0962399265  0.6465189885  1.2035868584
H -0.0103407192 -0.0081386051  0.0017013394
H -1.5514240708 -1.6320007729  1.0969755174
H  0.8836908985 -1.9786224818  4.388964114
H  2.5446457611 -0.3718250066  3.4558161378


