8
0  1
C -1.0103405403  0.3037121417 -0.150817625
C -1.5867189036  0.5757172525  1.2220907126
O -2.4327756387 -0.0880539378  1.7515419936
O -1.0791253837  1.6592506827  1.8617961722
H -1.1842051443  1.1574930129 -0.8140834109
H  0.0696530121  0.1351590496 -0.0848756208
H -1.487985831 -0.581261553 -0.5692144808
H -0.4060015704  2.1002833512  1.3226622591


