12
0  1
C  1.8851 -1.0363 -0.1124
C  2.921 -1.6309  0.6081
C  2.8783 -1.652  2.0022
C  1.7997 -1.0786  2.6757
C  0.7638 -0.4841  1.9551
C  0.8066 -0.463  0.561
H  1.9174 -1.0203 -1.1978
H  3.7613 -2.0769  0.0841
H  3.6848 -2.115  2.5631
H  1.7665 -1.0955  3.7614
H -0.076 -0.0377  2.4791
H  0.0004  0.0003 -0.0003


