15
0  1
C -1.1232945445  1.4542219915 -0.1710740177
C  0.0273712508  1.4093453329 -1.1916219198
C  1.1438885194  0.5872392912 -0.5467554048
S  0.2836071149 -0.7405843723  0.3524852337
C -1.3721746076  0.0089021957  0.2617322724
O  0.7380757 -0.7543655048  1.7436600985
O  0.3035546582 -1.9657306166 -0.4479398034
H -2.0285329535  1.8963587012 -0.5953290647
H -0.8286124967  2.0583020233  0.6947652638
H -0.31193766  0.9215066533 -2.1126624678
H  0.380500693  2.4101970145 -1.4533812377
H  1.8322773507  0.1144069451 -1.2493717367
H  1.6980660631  1.1590033905  0.2018921926
H -1.9273714761 -0.5575677866 -0.4901870948
H -1.8373176117 -0.104635259  1.2424876863


