12
0  1
C  1.8853887216 -1.0362178594 -0.1203809391
C  2.9192181027 -1.6294087756  0.5944963013
C  2.8752461169 -1.6497732284  1.9853839002
C  1.7996153019 -1.0786653624  2.6777049796
C  0.7678726025 -0.4858352479  1.9384418342
C  0.809174877 -0.4639970662  0.5474921941
Cl -0.5884162332  0.2365734072  2.7404638212
Cl  1.7467661895 -1.1048159522  4.4019642619
Cl  4.1805485895 -2.3974063271  2.8467005225
H  1.918634046 -1.0197659533 -1.2048916879
H  3.765967659 -2.0802428623  0.0884660843
H -0.0054159756  0.0027552288  0.0044587277


