12
0  1
C  0.7501717007  1.3087929034 -0.1109956667
C -0.229865177  0.96150162  0.7437635105
C -0.822580732 -0.3822356909  0.6691375385
O -1.7036524016 -0.8137698748  1.376869611
N -0.2580791119 -1.1750189547 -0.3396949447
C  0.7460974273 -0.8511960091 -1.2317793523
O  1.1726418541 -1.607385772 -2.0765754842
N  1.2227166824  0.4399863877 -1.0630864168
Br -0.8776733807  2.1292577782  2.0369740229
H  1.2137853267  2.2888463766 -0.0901860948
H -0.6357234895 -2.1135993509 -0.4293202758
H  1.9600613015  0.7151205866 -1.6989064477


