12
0  1
C -0.7285374686  0.6819702629  1.0040394546
C -0.737265638 -0.7795875636  1.0198002972
O -1.3216987641 -1.4688476011  1.8285922747
N  0.0109403408 -1.3714608435 -0.0117453207
C  0.7285633073 -0.7391900154 -1.0041446472
O  1.3547999508 -1.3116451901 -1.8674937844
N  0.6697826081  0.650394541 -0.9266370491
C -0.0344498518  1.3176670336  0.0440425297
Cl  0.0456546448  3.0352888498 -0.0709953899
H -1.2817076958  1.2117782326  1.766500256
H  0.0281249736 -2.3863513079 -0.0328781638
H  1.1843935929  1.1547836018 -1.6384804571


