8
0  1
C  0.2361465387  0.2346957344  0.6703219873
H  1.2940427752  0.0676958517  0.8642086979
C -0.1122486291 -0.3223950813 -0.7111405089
F  0.1431487335 -1.6354229809 -0.7516478806
F -1.3945958432 -0.1345625231 -1.0162361264
F  0.6395269058  0.2653480738 -1.6477259381
Cl -0.7173121259 -0.6034073821  1.8964825343
Br -0.0886083549  2.1284483076  0.6954372345


