12
0  1
C  0.2222667737 -0.4231305761  0.9742879523
C -0.6352037901 -1.3307742804  1.5912225303
N -0.4031042822 -1.8754451516  2.7871768476
C  0.7179582547 -1.5231836571  3.4196072679
C  1.649336653 -0.6260141712  2.9025857379
C  1.3902538796 -0.066069898  1.6503606633
C  2.3173343718  0.8693158874  1.0626414735
N  3.0608850259  1.6196314105  0.5910810168
H -0.0083105633 -0.0060673527 -0.0000250152
H -1.5548204491 -1.6346059698  1.0979445147
H  0.8825957472 -1.9811233972  4.3914699239
H  2.5476083789 -0.3694328437  3.453647087


