13
0  1
C  1.88493014 -1.0353701871 -0.1220100152
C  2.9181422234 -1.6349323266  0.5949817026
C  2.8865405641 -1.6692013491  1.9873690786
C  1.8147385121 -1.0956345928  2.6762396126
C  0.7771555207 -0.4926417134  1.9582627948
C  0.8152752306 -0.4658985507  0.5671778468
S  1.6962526198 -1.1010479981  4.4485923702
H  1.9130339371 -1.011639947 -1.2068890927
H  3.7576071058 -2.0828440573  0.0708206838
H  3.6975973928 -2.1435549888  2.5337040083
H -0.0580135383 -0.0429013535  2.4888246154
H  0.0034611934  0.0056155646  0.0208232981
H  2.8861790985 -1.6780485002  4.6763030968


