17
0  1
C  0.1301495197  2.1066789044 -0.4551983995
C -0.5664836683  0.8841338952 -0.2736478723
C -1.9272917753  0.8252788004 -0.4413309652
C -2.6575421541  1.9895126563 -0.7994693707
C -1.9591265587  3.2154375093 -0.9815391297
C -0.5512309844  3.2465620471 -0.8013813695
C -2.7205448926  4.3570068782 -1.3387318237
C -4.0765363398  4.2359012595 -1.4918184245
C -4.6728229514  2.9639365837 -1.2858226394
N -4.0087502095  1.8825855719 -0.9550835273
H  1.2071223591  2.1359176293 -0.3185905956
H -0.0134454912 -0.0096140977  0.0002745003
H -2.4844776715 -0.0970862856 -0.3085608675
H -0.0252258155  4.1880063038 -0.9425820404
H -2.2179724537  5.310545679 -1.4857493553
H -4.6961018349  5.0842392826 -1.7644169568
H -5.7492190779  2.8511573826 -1.403651163


