12
0  1
C -0.6634503481  1.16345102  0.5050984174
O -1.2210112544  2.1445362046  0.9317483973
N -0.4794677339  0.0074349767  1.2493445929
C  0.1505517728 -1.1555756583  0.8311658114
O  0.2764681465 -2.1301900451  1.5309466018
N  0.6199809308 -1.0877982669 -0.4723718825
C  0.5133667932 -0.0077751356 -1.3362138764
O  0.9449570753 -0.0144661014 -2.4627092285
N -0.1401421598  1.0806429818 -0.7769913627
H -0.8429986519  0.0131944607  2.1959211903
H  1.0893007067 -1.9123267274 -0.8301286532
H -0.2464552772  1.8994722912 -1.3656100077


