11
0  1
C  0.8703646487 -0.4873069534 -0.4522979275
C  1.7843471283  0.4681190996 -1.2469506073
N  1.041403159  0.0981692211 -2.4692579268
C  0.5840287923 -1.146306549 -1.8173695667
H -0.007852197  0.0247100963 -0.05339776
H  1.329194152 -1.1025184634  0.3234113661
H  1.7569370742  1.534064963 -1.0017242903
H  2.8283280983  0.1206291626 -1.2407701207
H  1.5995039933 -0.0192680657 -3.3112240129
H -0.4469452909 -1.4301103327 -2.0490365712
H  1.2460904418 -2.0074821783 -1.9926825827


