17
0  1
C  0.5705055791  0.0378587559 -1.3654477101
C  0.4820580725  1.2917710775 -0.4908560474
C -0.6725137575  1.1682779655  0.501318826
N -0.4914742556 -0.0329190319  1.3117183985
C -0.520914638 -1.2448490324  0.4976366027
C  0.6398814292 -1.2198613739 -0.4946042427
H  1.4379013484  0.0933555883 -2.0329836332
H -0.321830683 -0.0172551763 -2.0063759296
H  1.4148524202  1.4138568517  0.0740733295
H  0.3467479813  2.1862814593 -1.1098945253
H -0.7003344461  2.0369469033  1.167201449
H -1.6266802491  1.1453737446 -0.0619914197
H -1.2045043263 -0.0788187485  2.0344233449
H -0.4397159712 -2.1121976621  1.160867529
H -1.4705172941 -1.339810014 -0.0658431906
H  1.5806966006 -1.2258819557  0.07018275
H  0.6175421898 -2.1224293513 -1.116325531


