14
0  1
C  0.2713879668  0.4739628855  1.174130985
C  0.0103968616  1.288874102 -0.1205398448
C -0.4426328077  0.2362018868 -1.1461132241
N  0.2043562307 -0.9812281375 -0.6606053672
C -0.0468817333 -0.9784593197  0.7794263334
H -0.3461619672  0.8080670053  2.0121912556
H  1.3181949946  0.5623252532  1.4763409098
H -0.7439182764  2.0680355023  0.0181548217
H  0.9305390203  1.7726336421 -0.4586792167
H -1.5447649284  0.1555134603 -1.1362974252
H -0.1240023376  0.4653331619 -2.166971541
H -0.15340938 -1.8176709976 -1.1147190441
H -1.1008699712 -1.2079977659  1.0193955185
H  0.5880663278 -1.7106906787  1.2861858391


