12
0  1
C  1.885023009 -1.0361118851 -0.1059637057
C  2.9207150963 -1.630549719  0.6069297473
C  2.8778793557 -1.6519696278  2.0033422753
C  1.7999032982 -1.0786770394  2.6693270647
C  0.7642017444 -0.4842433814  1.9564397247
C  0.807039422 -0.4628347299  0.560021332
Cl -0.4570137639  0.2645214904 -0.369663262
Cl -0.555047826  0.2155374595  2.8288008131
Cl  4.1418971703 -2.3793525464  2.9330356244
Cl  4.2399731752 -2.3303196793 -0.2654324072
H  1.9182362932 -1.019508381 -1.1896651614
H  1.7666930256 -1.0952919607  3.7530279547


