12
0  1
C  1.8853281142 -1.0362312878 -0.1174829008
C  2.9173370192 -1.6287931992  0.6073268262
C  2.8815772098 -1.6536745128  1.9999417672
C  1.8002919522 -1.0782482924  2.659436091
C  0.7607689316 -0.4823029938  1.9527308172
C  0.8103011988 -0.4650218701  0.5604099586
Br  1.7423619683 -1.1072673677  4.5421509667
H  1.9185639227 -1.0198057925 -1.2023964018
H  3.7604168721 -2.0773453501  0.0901735314
H  3.6826174774 -2.1139048982  2.5688972193
H -0.0741331274 -0.038958434  2.4852540712
H -0.000031539 -0.0003460012  0.0064580538


