12
0  1
C  1.8865127634 -1.0374614165 -0.1220016308
C  2.9145528312 -1.6282360984  0.6026084917
C  2.8792262865 -1.6534736659  1.9953967327
C  1.7979157476 -1.0780856851  2.6677762026
C  0.7621036601 -0.4831937896  1.9500538782
C  0.8164486425 -0.468695997  0.5621790996
Cl -0.477510562  0.2745019988 -0.3306258395
Cl  1.7098700169 -1.0847505079  4.3974806889
Cl  4.1799879143 -2.3990788652  2.8606011697
H  1.9144212227 -1.0180207404 -1.2060485287
H  3.758903559 -2.0778442774  0.0903110862
H -0.0744320821 -0.0382609553  2.4779686495


