15
0  1
C -0.2497968857  0.8639970443 -0.9462996546
C  1.1413657943  0.4786278621 -0.3766977915
C  0.8466987358 -0.3259469741  0.899083493
C -0.4571865085 -1.052649494  0.5578255586
C -1.2825234512  0.0390791753 -0.1378513266
H -0.3084032438  0.6303180487 -2.0139615672
H -0.4408080769  1.937035171 -0.848243249
H  1.6760353877 -0.1582149386 -1.0910602704
H  1.7753757729  1.3501310539 -0.188072491
H  1.6633321681 -0.9999297734  1.1766325898
H  0.674691286  0.3534963432  1.7445255081
H -0.2485809792 -1.872526655 -0.1427382416
H -0.9610231189 -1.480558402  1.4303251869
H -2.0838296612 -0.3647613514 -0.7640450219
H -1.7548472194  0.6718028902  0.6232772775


