13
0  1
C  1.9019058223 -1.0458131481 -0.1176202825
C  2.9349524992 -1.6388752176  0.6070850115
C  2.862157442 -1.6430650409  1.9891885881
C  1.7956787316 -1.0766842252  2.6718210702
C  0.7681975161 -0.4865864779  1.943858221
C  0.8206874137 -0.4708295039  0.5493845071
O -0.220225565  0.124270531 -0.1040111198
F  3.8612655187 -2.2168232049  2.6957033177
H  1.9426260883 -1.0334095853 -1.2044628391
H  3.7865254224 -2.0926696439  0.1113941901
H  1.7787785411 -1.1021351714  3.756280123
H -0.0828896639 -0.0330589508  2.4411619774
H -0.0822597665  0.0788796388 -1.0603827646


