8
0  1
C -0.6117552925  0.4437644466 -0.0623859751
H -1.5531116788 -0.1058146853 -0.0954662115
C  0.5637132624 -0.5323262747 -0.0325218069
F  0.5360873924 -1.2826361972 -1.1402976956
F  0.4673414487 -1.3444214776  1.0230415164
F  1.7321562774  0.102031533  0.0136484235
F -0.4830804417  1.2041968654 -1.1781390389
Br -0.6118509677  1.5625057897  1.495020788


