13
0  1
C -0.5354884282 -1.0376959704 -0.5113281987
C -0.5519495008  0.3816694856 -1.0838764182
C  0.6138439875  1.0206718761 -0.3289099608
O  0.6475799262  0.3907956038  0.9500223272
C -0.188812659 -0.7641944601  0.9523632
H  0.2558972972 -1.6284149677 -0.9865120522
H -1.483117532 -1.5695882871 -0.6303842549
H -0.4252835728  0.4182497635 -2.1690959771
H -1.49240272  0.8824577035 -0.8273661938
H  1.5661478873  0.8363202466 -0.845366547
H  0.4990363606  2.0987206828 -0.1819554327
H  0.3533789198 -1.5844087077  1.4322016189
H -1.0936299657 -0.5512829688  1.5385078894


