13
0  1
C -0.2712746239 -0.257196432  1.0356116443
N  0.9012726366 -0.5147033413  1.8506407259
C  1.7413453189  0.6654298501  1.9346647302
C  1.6505128773 -1.6452151267  1.3347577269
H -0.9108035743 -1.1449997693  1.0164361084
H -0.0085735848  0.0049895698 -0.0084792313
H -0.844356341  0.5703525953  1.4644768253
H  2.5976670214  0.4635829968  2.5851643822
H  1.1715729273  1.4951833669  2.3635673283
H  2.123948027  0.9810506778  0.9438087291
H  2.5068237882 -1.8493558228  1.9845946535
H  2.0274580844 -1.4666456912  0.3081667164
H  1.0128074427 -2.5342728736  1.3166896607


