15
0  1
C  0.5176844906  1.5180146045  0.0104329255
C  1.4830852458  0.4433049475  0.4335310056
C  1.3377796365 -0.8299991723  0.0179596209
C  0.1987903566 -1.3305685531 -0.7298656426
C -1.0836020888 -0.8940895116 -0.6074642704
C -1.5397588383  0.1494091189  0.2926122801
C -0.8117724341  1.2243908356  0.6525683326
H  0.4033607407  1.4888140071 -1.0832133659
H  0.8816862831  2.5093177381  0.2890932494
H  2.319635347  0.7089591568  1.07656923
H  2.1114563783 -1.5549777748  0.265763004
H  0.3698743622 -2.2122507035 -1.3451354877
H -1.8546021346 -1.455121765 -1.1328137956
H -2.538203827  0.0275983963  0.7095609783
H -1.1926135179  1.9043986753  1.4118019359


