8
0  1
C  0.0009139736 -0.7274215241  0.8122180875
C  1.1342742108 -0.4451937629  1.7765909849
Br  2.8725801468 -0.5374825437  0.8885223172
H -0.9523497468 -0.6655697625  1.3498999663
H -0.0132145754  0.0011316852 -0.00242179
H  0.0909416554 -1.7277586765  0.3811339084
H  1.1806529587 -1.1750470268  2.584204375
H  1.0763013769  0.5570416113  2.1999521507


